data_Co-formate_PM
_symmetry_space_group_name_H-M   'P 1'
_cell_length_a 9.883900
_cell_length_b 18.237000
_cell_length_c 18.081800
_cell_angle_alpha 90.000000
_cell_angle_beta 90.000000
_cell_angle_gamma 90.000000
_symmetry_Int_Tables_number 1

loop_
_symmetry_equiv_pos_as_xyz
 'x, y, z'

loop_
_atom_site_label
_atom_site_fract_x
_atom_site_fract_y
_atom_site_fract_z
_atom_site_charge
Co 0.578220 0.178900 0.060900 0.000000
Co 0.921780 0.321100 0.560900 0.000000
Co 0.421780 0.178900 0.439100 0.000000
Co 0.078220 0.321100 0.939100 0.000000
Co 0.421780 0.821100 0.939100 0.000000
Co 0.078220 0.678900 0.439100 0.000000
Co 0.578220 0.821100 0.560900 0.000000
Co 0.921780 0.678900 0.060900 0.000000
Co 0.387620 0.283290 0.964880 0.000000
Co 0.112380 0.216710 0.464880 0.000000
Co 0.612380 0.283290 0.535120 0.000000
Co 0.887620 0.216710 0.035120 0.000000
Co 0.612380 0.716710 0.035120 0.000000
Co 0.887620 0.783290 0.535120 0.000000
Co 0.387620 0.716710 0.464880 0.000000
Co 0.112380 0.783290 0.964880 0.000000
Co 0.500000 0.187370 0.250000 0.000000
Co 0.000000 0.312630 0.750000 0.000000
Co 0.500000 0.812630 0.750000 0.000000
Co 0.000000 0.687370 0.250000 0.000000
Co 0.500000 0.000000 0.000000 0.000000
Co 0.000000 0.500000 0.500000 0.000000
Co 0.500000 0.000000 0.500000 0.000000
Co 0.000000 0.500000 0.000000 0.000000
O 0.494400 0.185150 0.954740 0.000000
O 0.005600 0.314850 0.454740 0.000000
O 0.505600 0.185150 0.545260 0.000000
O 0.994400 0.314850 0.045260 0.000000
O 0.505600 0.814850 0.045260 0.000000
O 0.994400 0.685150 0.545260 0.000000
O 0.494400 0.814850 0.454740 0.000000
O 0.005600 0.685150 0.954740 0.000000
O 0.500500 0.071850 0.909720 0.000000
O 0.999500 0.428150 0.409720 0.000000
O 0.499500 0.071850 0.590280 0.000000
O 0.000500 0.428150 0.090280 0.000000
O 0.499500 0.928150 0.090280 0.000000
O 0.000500 0.571850 0.590280 0.000000
O 0.500500 0.928150 0.409720 0.000000
O 0.999500 0.571850 0.909720 0.000000
O 0.707600 0.007350 0.008690 0.000000
O 0.792400 0.492650 0.508690 0.000000
O 0.292400 0.007350 0.491310 0.000000
O 0.207600 0.492650 0.991310 0.000000
O 0.292400 0.992650 0.991310 0.000000
O 0.207600 0.507350 0.491310 0.000000
O 0.707600 0.992650 0.508690 0.000000
O 0.792400 0.507350 0.008690 0.000000
O 0.755300 0.126870 0.022140 0.000000
O 0.744700 0.373130 0.522140 0.000000
O 0.244700 0.126870 0.477860 0.000000
O 0.255300 0.373130 0.977860 0.000000
O 0.244700 0.873130 0.977860 0.000000
O 0.255300 0.626870 0.477860 0.000000
O 0.755300 0.873130 0.522140 0.000000
O 0.744700 0.626870 0.022140 0.000000
O 0.473500 0.083820 0.080670 0.000000
O 0.026500 0.416180 0.580670 0.000000
O 0.526500 0.083820 0.419330 0.000000
O 0.973500 0.416180 0.919330 0.000000
O 0.526500 0.916180 0.919330 0.000000
O 0.973500 0.583820 0.419330 0.000000
O 0.473500 0.916180 0.580670 0.000000
O 0.026500 0.583820 0.080670 0.000000
O 0.389700 0.108320 0.193320 0.000000
O 0.110300 0.391680 0.693320 0.000000
O 0.610300 0.108320 0.306680 0.000000
O 0.889700 0.391680 0.806680 0.000000
O 0.610300 0.891680 0.806680 0.000000
O 0.889700 0.608320 0.306680 0.000000
O 0.389700 0.891680 0.693320 0.000000
O 0.110300 0.608320 0.193320 0.000000
O 0.653700 0.186360 0.168320 0.000000
O 0.846300 0.313640 0.668320 0.000000
O 0.346300 0.186360 0.331680 0.000000
O 0.153700 0.313640 0.831680 0.000000
O 0.346300 0.813640 0.831680 0.000000
O 0.153700 0.686360 0.331680 0.000000
O 0.653700 0.813640 0.668320 0.000000
O 0.846300 0.686360 0.168320 0.000000
O 0.698100 0.269630 0.031940 0.000000
O 0.801900 0.230370 0.531940 0.000000
O 0.301900 0.269630 0.468060 0.000000
O 0.198100 0.230370 0.968060 0.000000
O 0.301900 0.730370 0.968060 0.000000
O 0.198100 0.769630 0.468060 0.000000
O 0.698100 0.730370 0.531940 0.000000
O 0.801900 0.769630 0.031940 0.000000
O 0.557500 0.347080 0.974300 0.000000
O 0.942500 0.152920 0.474300 0.000000
O 0.442500 0.347080 0.525700 0.000000
O 0.057500 0.152920 0.025700 0.000000
O 0.442500 0.652920 0.025700 0.000000
O 0.057500 0.847080 0.525700 0.000000
O 0.557500 0.652920 0.474300 0.000000
O 0.942500 0.847080 0.974300 0.000000
O 0.415100 0.251310 0.076360 0.000000
O 0.084900 0.248690 0.576360 0.000000
O 0.584900 0.251310 0.423640 0.000000
O 0.915100 0.248690 0.923640 0.000000
O 0.584900 0.748690 0.923640 0.000000
O 0.915100 0.751310 0.423640 0.000000
O 0.415100 0.748690 0.576360 0.000000
O 0.084900 0.751310 0.076360 0.000000
O 0.388500 0.268460 0.197890 0.000000
O 0.111500 0.231540 0.697890 0.000000
O 0.611500 0.268460 0.302110 0.000000
O 0.888500 0.231540 0.802110 0.000000
O 0.611500 0.731540 0.802110 0.000000
O 0.888500 0.768460 0.302110 0.000000
O 0.388500 0.731540 0.697890 0.000000
O 0.111500 0.768460 0.197890 0.000000
O 0.375500 0.297110 0.852850 0.000000
O 0.124500 0.202890 0.352850 0.000000
O 0.624500 0.297110 0.647150 0.000000
O 0.875500 0.202890 0.147150 0.000000
O 0.624500 0.702890 0.147150 0.000000
O 0.875500 0.797110 0.647150 0.000000
O 0.375500 0.702890 0.352850 0.000000
O 0.124500 0.797110 0.852850 0.000000
C 0.484200 0.138600 0.903600 0.000000
C 0.015800 0.361400 0.403600 0.000000
C 0.515800 0.138600 0.596400 0.000000
C 0.984200 0.361400 0.096400 0.000000
C 0.515800 0.861400 0.096400 0.000000
C 0.984200 0.638600 0.596400 0.000000
C 0.484200 0.861400 0.403600 0.000000
C 0.015800 0.638600 0.903600 0.000000
C 0.787100 0.060000 0.012300 0.000000
C 0.712900 0.440000 0.512300 0.000000
C 0.212900 0.060000 0.487700 0.000000
C 0.287100 0.440000 0.987700 0.000000
C 0.212900 0.940000 0.987700 0.000000
C 0.287100 0.560000 0.487700 0.000000
C 0.787100 0.940000 0.512300 0.000000
C 0.712900 0.560000 0.012300 0.000000
C 0.396800 0.072000 0.136600 0.000000
C 0.103200 0.428000 0.636600 0.000000
C 0.603200 0.072000 0.363400 0.000000
C 0.896800 0.428000 0.863400 0.000000
C 0.603200 0.928000 0.863400 0.000000
C 0.896800 0.572000 0.363400 0.000000
C 0.396800 0.928000 0.636600 0.000000
C 0.103200 0.572000 0.136600 0.000000
C 0.776500 0.192100 0.188300 0.000000
C 0.723500 0.307900 0.688300 0.000000
C 0.223500 0.192100 0.311700 0.000000
C 0.276500 0.307900 0.811700 0.000000
C 0.223500 0.807900 0.811700 0.000000
C 0.276500 0.692100 0.311700 0.000000
C 0.776500 0.807900 0.688300 0.000000
C 0.723500 0.692100 0.188300 0.000000
C 0.669100 0.329340 0.999900 0.000000
C 0.830900 0.170660 0.499900 0.000000
C 0.330900 0.329340 0.500100 0.000000
C 0.169100 0.170660 0.000100 0.000000
C 0.330900 0.670660 0.000100 0.000000
C 0.169100 0.829340 0.500100 0.000000
C 0.669100 0.670660 0.499900 0.000000
C 0.830900 0.829340 0.999900 0.000000
C 0.363000 0.282000 0.133200 0.000000
C 0.137000 0.218000 0.633200 0.000000
C 0.637000 0.282000 0.366800 0.000000
C 0.863000 0.218000 0.866800 0.000000
C 0.637000 0.718000 0.866800 0.000000
C 0.863000 0.782000 0.366800 0.000000
C 0.363000 0.718000 0.633200 0.000000
C 0.137000 0.782000 0.133200 0.000000
H 0.876000 0.045000 0.015000 0.000000
H 0.624000 0.455000 0.515000 0.000000
H 0.124000 0.045000 0.485000 0.000000
H 0.376000 0.455000 0.985000 0.000000
H 0.124000 0.955000 0.985000 0.000000
H 0.376000 0.545000 0.485000 0.000000
H 0.876000 0.955000 0.515000 0.000000
H 0.624000 0.545000 0.015000 0.000000
H 0.333000 0.034000 0.132200 0.000000
H 0.167000 0.466000 0.632200 0.000000
H 0.667000 0.034000 0.367800 0.000000
H 0.833000 0.466000 0.867800 0.000000
H 0.667000 0.966000 0.867800 0.000000
H 0.833000 0.534000 0.367800 0.000000
H 0.333000 0.966000 0.632200 0.000000
H 0.167000 0.534000 0.132200 0.000000
H 0.795000 0.188300 0.239100 0.000000
H 0.705000 0.311700 0.739100 0.000000
H 0.205000 0.188300 0.260900 0.000000
H 0.295000 0.311700 0.760900 0.000000
H 0.205000 0.811700 0.760900 0.000000
H 0.295000 0.688300 0.260900 0.000000
H 0.795000 0.811700 0.739100 0.000000
H 0.705000 0.688300 0.239100 0.000000
H 0.741000 0.366500 0.994700 0.000000
H 0.759000 0.133500 0.494700 0.000000
H 0.259000 0.366500 0.505300 0.000000
H 0.241000 0.133500 0.005300 0.000000
H 0.259000 0.633500 0.005300 0.000000
H 0.241000 0.866500 0.505300 0.000000
H 0.741000 0.633500 0.494700 0.000000
H 0.759000 0.866500 0.994700 0.000000
H 0.288000 0.322000 0.121000 0.000000
H 0.212000 0.178000 0.621000 0.000000
H 0.712000 0.322000 0.379000 0.000000
H 0.788000 0.178000 0.879000 0.000000
H 0.712000 0.678000 0.879000 0.000000
H 0.788000 0.822000 0.379000 0.000000
H 0.288000 0.678000 0.621000 0.000000
H 0.212000 0.822000 0.121000 0.000000
H 0.469000 0.154000 0.858000 0.000000
H 0.031000 0.346000 0.358000 0.000000
H 0.531000 0.154000 0.642000 0.000000
H 0.969000 0.346000 0.142000 0.000000
H 0.531000 0.846000 0.142000 0.000000
H 0.969000 0.654000 0.642000 0.000000
H 0.469000 0.846000 0.358000 0.000000
H 0.031000 0.654000 0.858000 0.000000
