data_MOF-505_PM
_symmetry_space_group_name_H-M    'P1'
_cell_length_a    18.482600
_cell_length_b    18.482600
_cell_length_c    24.713000
_cell_angle_alpha    90.000000
_cell_angle_beta     90.000000
_cell_angle_gamma    120.000000
_symmetry_Int_Tables_number 1

loop_
_symmetry_equiv_pos_as_xyz
'x,y,z'

loop_
_atom_site_label
_atom_site_type_symbol
_atom_site_fract_x
_atom_site_fract_y
_atom_site_fract_z
Cu1    Cu    0.857322    0.142678    0.122930
Cu2    Cu    0.857322    0.714644    0.122930
Cu3    Cu    0.285356    0.142678    0.122930
Cu4    Cu    0.142678    0.857322    0.877070
Cu5    Cu    0.714644    0.857322    0.877070
Cu6    Cu    0.142678    0.285356    0.877070
Cu7    Cu    0.523989    0.476011    0.456263
Cu8    Cu    0.523989    0.047977    0.456263
Cu9    Cu    0.952023    0.476011    0.456263
Cu10    Cu    0.809345    0.190655    0.210403
Cu11    Cu    0.381311    0.190655    0.210403
Cu12    Cu    0.809345    0.618689    0.210403
Cu13    Cu    0.190655    0.809345    0.789597
Cu14    Cu    0.190655    0.381311    0.789597
Cu15    Cu    0.618689    0.809345    0.789597
Cu16    Cu    0.476011    0.523989    0.543737
Cu17    Cu    0.047977    0.523989    0.543737
Cu18    Cu    0.476011    0.952023    0.543737
O1    O    0.814590    0.038180    0.162390
O2    O    0.961820    0.776410    0.162390
O3    O    0.223590    0.185410    0.162390
O4    O    0.038180    0.814590    0.837610
O5    O    0.776410    0.961820    0.837610
O6    O    0.185410    0.223590    0.837610
O7    O    0.481257    0.371513    0.495723
O8    O    0.628487    0.109743    0.495723
O9    O    0.890257    0.518743    0.495723
O10    O    0.704847    0.147923    0.170943
O11    O    0.443077    0.295153    0.170943
O12    O    0.852077    0.556923    0.170943
O13    O    0.147923    0.704847    0.829057
O14    O    0.295153    0.443077    0.829057
O15    O    0.556923    0.852077    0.829057
O16    O    0.371513    0.481257    0.504277
O17    O    0.109743    0.628487    0.504277
O18    O    0.518743    0.890257    0.504277
O19    O    0.185410    0.961820    0.837610
O20    O    0.038180    0.223590    0.837610
O21    O    0.776410    0.814590    0.837610
O22    O    0.961820    0.185410    0.162390
O23    O    0.223590    0.038180    0.162390
O24    O    0.814590    0.776410    0.162390
O25    O    0.852077    0.295153    0.170943
O26    O    0.704847    0.556923    0.170943
O27    O    0.443077    0.147923    0.170943
O28    O    0.628487    0.518743    0.495723
O29    O    0.890257    0.371513    0.495723
O30    O    0.481257    0.109743    0.495723
O31    O    0.518743    0.628487    0.504277
O32    O    0.371513    0.890257    0.504277
O33    O    0.109743    0.481257    0.504277
O34    O    0.295153    0.852077    0.829057
O35    O    0.556923    0.704847    0.829057
O36    O    0.147923    0.443077    0.829057
O37    O    0.744520    0.106880    0.096980
O38    O    0.893120    0.637640    0.096980
O39    O    0.362360    0.255480    0.096980
O40    O    0.106880    0.744520    0.903020
O41    O    0.637640    0.893120    0.903020
O42    O    0.255480    0.362360    0.903020
O43    O    0.411187    0.440213    0.430313
O44    O    0.559787    0.970973    0.430313
O45    O    0.029027    0.588813    0.430313
O46    O    0.773547    0.077853    0.236353
O47    O    0.304307    0.226453    0.236353
O48    O    0.922147    0.695693    0.236353
O49    O    0.077853    0.773547    0.763647
O50    O    0.226453    0.304307    0.763647
O51    O    0.695693    0.922147    0.763647
O52    O    0.440213    0.411187    0.569687
O53    O    0.970973    0.559787    0.569687
O54    O    0.588813    0.029027    0.569687
O55    O    0.255480    0.893120    0.903020
O56    O    0.106880    0.362360    0.903020
O57    O    0.637640    0.744520    0.903020
O58    O    0.893120    0.255480    0.096980
O59    O    0.362360    0.106880    0.096980
O60    O    0.744520    0.637640    0.096980
O61    O    0.922147    0.226453    0.236353
O62    O    0.773547    0.695693    0.236353
O63    O    0.304307    0.077853    0.236353
O64    O    0.559787    0.588813    0.430313
O65    O    0.029027    0.440213    0.430313
O66    O    0.411187    0.970973    0.430313
O67    O    0.588813    0.559787    0.569687
O68    O    0.440213    0.029027    0.569687
O69    O    0.970973    0.411187    0.569687
O70    O    0.226453    0.922147    0.763647
O71    O    0.695693    0.773547    0.763647
O72    O    0.077853    0.304307    0.763647
C1    C    0.783740    0.026470    0.208920
C2    C    0.973530    0.757270    0.208920
C3    C    0.242730    0.216260    0.208920
C4    C    0.026470    0.783740    0.791080
C5    C    0.757270    0.973530    0.791080
C6    C    0.216260    0.242730    0.791080
C7    C    0.450407    0.359803    0.542253
C8    C    0.640197    0.090603    0.542253
C9    C    0.909397    0.549593    0.542253
C10    C    0.693137    0.117073    0.124413
C11    C    0.423937    0.306863    0.124413
C12    C    0.882927    0.576063    0.124413
C13    C    0.117073    0.693137    0.875587
C14    C    0.306863    0.423937    0.875587
C15    C    0.576063    0.882927    0.875587
C16    C    0.359803    0.450407    0.457747
C17    C    0.090603    0.640197    0.457747
C18    C    0.549593    0.909397    0.457747
C19    C    0.216260    0.973530    0.791080
C20    C    0.026470    0.242730    0.791080
C21    C    0.757270    0.783740    0.791080
C22    C    0.973530    0.216260    0.208920
C23    C    0.242730    0.026470    0.208920
C24    C    0.783740    0.757270    0.208920
C25    C    0.882927    0.306863    0.124413
C26    C    0.693137    0.576063    0.124413
C27    C    0.423937    0.117073    0.124413
C28    C    0.640197    0.549593    0.542253
C29    C    0.909397    0.359803    0.542253
C30    C    0.450407    0.090603    0.542253
C31    C    0.549593    0.640197    0.457747
C32    C    0.359803    0.909397    0.457747
C33    C    0.090603    0.450407    0.457747
C34    C    0.306863    0.882927    0.875587
C35    C    0.576063    0.693137    0.875587
C36    C    0.117073    0.423937    0.875587
C37    C    0.714860    0.921980    0.282920
C38    C    0.078020    0.792880    0.282920
C39    C    0.207120    0.285140    0.282920
C40    C    0.921980    0.714860    0.717080
C41    C    0.792880    0.078020    0.717080
C42    C    0.285140    0.207120    0.717080
C43    C    0.381527    0.255313    0.616253
C44    C    0.744687    0.126213    0.616253
C45    C    0.873787    0.618473    0.616253
C46    C    0.588647    0.048193    0.050413
C47    C    0.459547    0.411353    0.050413
C48    C    0.951807    0.540453    0.050413
C49    C    0.048193    0.588647    0.949587
C50    C    0.411353    0.459547    0.949587
C51    C    0.540453    0.951807    0.949587
C52    C    0.255313    0.381527    0.383747
C53    C    0.126213    0.744687    0.383747
C54    C    0.618473    0.873787    0.383747
C55    C    0.285140    0.078020    0.717080
C56    C    0.921980    0.207120    0.717080
C57    C    0.792880    0.714860    0.717080
C58    C    0.078020    0.285140    0.282920
C59    C    0.207120    0.921980    0.282920
C60    C    0.714860    0.792880    0.282920
C61    C    0.951807    0.411353    0.050413
C62    C    0.588647    0.540453    0.050413
C63    C    0.459547    0.048193    0.050413
C64    C    0.744687    0.618473    0.616253
C65    C    0.873787    0.255313    0.616253
C66    C    0.381527    0.126213    0.616253
C67    C    0.618473    0.744687    0.383747
C68    C    0.255313    0.873787    0.383747
C69    C    0.126213    0.381527    0.383747
C70    C    0.411353    0.951807    0.949587
C71    C    0.540453    0.588647    0.949587
C72    C    0.048193    0.459547    0.949587
H1    H    0.700500    0.959400    0.299600
H2    H    0.040600    0.741100    0.299600
H3    H    0.258900    0.299500    0.299600
H4    H    0.959400    0.700500    0.700400
H5    H    0.741100    0.040600    0.700400
H6    H    0.299500    0.258900    0.700400
H7    H    0.367167    0.292733    0.632933
H8    H    0.707267    0.074433    0.632933
H9    H    0.925567    0.632833    0.632933
H10    H    0.626067    0.033833    0.033733
H11    H    0.407767    0.373933    0.033733
H12    H    0.966167    0.592233    0.033733
H13    H    0.033833    0.626067    0.966267
H14    H    0.373933    0.407767    0.966267
H15    H    0.592233    0.966167    0.966267
H16    H    0.292733    0.367167    0.367067
H17    H    0.074433    0.707267    0.367067
H18    H    0.632833    0.925567    0.367067
H19    H    0.299500    0.040600    0.700400
H20    H    0.959400    0.258900    0.700400
H21    H    0.741100    0.700500    0.700400
H22    H    0.040600    0.299500    0.299600
H23    H    0.258900    0.959400    0.299600
H24    H    0.700500    0.741100    0.299600
H25    H    0.966167    0.373933    0.033733
H26    H    0.626067    0.592233    0.033733
H27    H    0.407767    0.033833    0.033733
H28    H    0.707267    0.632833    0.632933
H29    H    0.925567    0.292733    0.632933
H30    H    0.367167    0.074433    0.632933
H31    H    0.632833    0.707267    0.367067
H32    H    0.292733    0.925567    0.367067
H33    H    0.074433    0.367167    0.367067
H34    H    0.373933    0.966167    0.966267
H35    H    0.592233    0.626067    0.966267
H36    H    0.033833    0.407767    0.966267
C73    C    0.692000    0.845980    0.307440
C74    C    0.154020    0.846020    0.307440
C75    C    0.153980    0.308000    0.307440
C76    C    0.845980    0.692000    0.692560
C77    C    0.846020    0.154020    0.692560
C78    C    0.308000    0.153980    0.692560
C79    C    0.358667    0.179313    0.640773
C80    C    0.820687    0.179353    0.640773
C81    C    0.820647    0.641333    0.640773
C82    C    0.512647    0.025333    0.025893
C83    C    0.512687    0.487353    0.025893
C84    C    0.974667    0.487313    0.025893
C85    C    0.025333    0.512647    0.974107
C86    C    0.487353    0.512687    0.974107
C87    C    0.487313    0.974667    0.974107
C88    C    0.179313    0.358667    0.359227
C89    C    0.179353    0.820687    0.359227
C90    C    0.641333    0.820647    0.359227
C91    C    0.758300    0.944080    0.234530
C92    C    0.055920    0.814220    0.234530
C93    C    0.185780    0.241700    0.234530
C94    C    0.944080    0.758300    0.765470
C95    C    0.814220    0.055920    0.765470
C96    C    0.241700    0.185780    0.765470
C97    C    0.424967    0.277413    0.567863
C98    C    0.722587    0.147553    0.567863
C99    C    0.852447    0.575033    0.567863
C100    C    0.610747    0.091633    0.098803
C101    C    0.480887    0.389253    0.098803
C102    C    0.908367    0.519113    0.098803
C103    C    0.091633    0.610747    0.901197
C104    C    0.389253    0.480887    0.901197
C105    C    0.519113    0.908367    0.901197
C106    C    0.277413    0.424967    0.432137
C107    C    0.147553    0.722587    0.432137
C108    C    0.575033    0.852447    0.432137
C109    C    0.241700    0.055920    0.765470
C110    C    0.944080    0.185780    0.765470
C111    C    0.814220    0.758300    0.765470
C112    C    0.055920    0.241700    0.234530
C113    C    0.185780    0.944080    0.234530
C114    C    0.758300    0.814220    0.234530
C115    C    0.908367    0.389253    0.098803
C116    C    0.610747    0.519113    0.098803
C117    C    0.480887    0.091633    0.098803
C118    C    0.722587    0.575033    0.567863
C119    C    0.852447    0.277413    0.567863
C120    C    0.424967    0.147553    0.567863
C121    C    0.575033    0.722587    0.432137
C122    C    0.277413    0.852447    0.432137
C123    C    0.147553    0.424967    0.432137
C124    C    0.389253    0.908367    0.901197
C125    C    0.519113    0.610747    0.901197
C126    C    0.091633    0.480887    0.901197
C127    C    0.779300    0.889670    0.209820
C128    C    0.110330    0.889630    0.209820
C129    C    0.110370    0.220700    0.209820
C130    C    0.889670    0.779300    0.790180
C131    C    0.889630    0.110330    0.790180
C132    C    0.220700    0.110370    0.790180
C133    C    0.445967    0.223003    0.543153
C134    C    0.776997    0.222963    0.543153
C135    C    0.777037    0.554033    0.543153
C136    C    0.556337    0.112633    0.123513
C137    C    0.556297    0.443663    0.123513
C138    C    0.887367    0.443703    0.123513
C139    C    0.112633    0.556337    0.876487
C140    C    0.443663    0.556297    0.876487
C141    C    0.443703    0.887367    0.876487
C142    C    0.223003    0.445967    0.456847
C143    C    0.222963    0.776997    0.456847
C144    C    0.554033    0.777037    0.456847
H37    H    0.808000    0.904000    0.176200
H38    H    0.096000    0.904000    0.176200
H39    H    0.096000    0.192000    0.176200
H40    H    0.904000    0.808000    0.823800
H41    H    0.904000    0.096000    0.823800
H42    H    0.192000    0.096000    0.823800
H43    H    0.474667    0.237333    0.509533
H44    H    0.762667    0.237333    0.509533
H45    H    0.762667    0.525333    0.509533
H46    H    0.570667    0.141333    0.157133
H47    H    0.570667    0.429333    0.157133
H48    H    0.858667    0.429333    0.157133
H49    H    0.141333    0.570667    0.842867
H50    H    0.429333    0.570667    0.842867
H51    H    0.429333    0.858667    0.842867
H52    H    0.237333    0.474667    0.490467
H53    H    0.237333    0.762667    0.490467
H54    H    0.525333    0.762667    0.490467
