data_Ni-MOF-74_PM
_symmetry_space_group_name_H-M	'P1'
_cell_length_a	25.785600
_cell_length_b	25.785600
_cell_length_c	6.770100
_cell_angle_alpha	90.000000
_cell_angle_beta	90.000000
_cell_angle_gamma	120.000000
_symmetry_Int_Tables_number 1

loop_
_symmetry_equiv_pos_as_xyz
'x,y,z'

loop_
_atom_site_label
_atom_site_type_symbol
_atom_site_fract_x
_atom_site_fract_y
_atom_site_fract_z
_atom_site_charge
C1	C	0.406600	0.418600	0.748000	0.000000
C2	C	0.581400	0.988000	0.748000	0.000000
C3	C	0.012000	0.593400	0.748000	0.000000
C4	C	0.593400	0.581400	0.252000	0.000000
C5	C	0.418600	0.012000	0.252000	0.000000
C6	C	0.988000	0.406600	0.252000	0.000000
C7	C	0.073267	0.751933	0.081333	0.000000
C8	C	0.248067	0.321333	0.081333	0.000000
C9	C	0.678667	0.926733	0.081333	0.000000
C10	C	0.260067	0.914733	0.585333	0.000000
C11	C	0.085267	0.345333	0.585333	0.000000
C12	C	0.654667	0.739933	0.585333	0.000000
C13	C	0.739933	0.085267	0.414667	0.000000
C14	C	0.914733	0.654667	0.414667	0.000000
C15	C	0.345333	0.260067	0.414667	0.000000
C16	C	0.926733	0.248067	0.918667	0.000000
C17	C	0.751933	0.678667	0.918667	0.000000
C18	C	0.321333	0.073267	0.918667	0.000000
C19	C	0.454100	0.458300	0.873000	0.000000
C20	C	0.541700	0.995800	0.873000	0.000000
C21	C	0.004200	0.545900	0.873000	0.000000
C22	C	0.545900	0.541700	0.127000	0.000000
C23	C	0.458300	0.004200	0.127000	0.000000
C24	C	0.995800	0.454100	0.127000	0.000000
C25	C	0.120767	0.791633	0.206333	0.000000
C26	C	0.208367	0.329133	0.206333	0.000000
C27	C	0.670867	0.879233	0.206333	0.000000
C28	C	0.212567	0.875033	0.460333	0.000000
C29	C	0.124967	0.337533	0.460333	0.000000
C30	C	0.662467	0.787433	0.460333	0.000000
C31	C	0.787433	0.124967	0.539667	0.000000
C32	C	0.875033	0.662467	0.539667	0.000000
C33	C	0.337533	0.212567	0.539667	0.000000
C34	C	0.879233	0.208367	0.793667	0.000000
C35	C	0.791633	0.670867	0.793667	0.000000
C36	C	0.329133	0.120767	0.793667	0.000000
C37	C	0.543400	0.557800	0.923000	0.000000
C38	C	0.442200	0.985600	0.923000	0.000000
C39	C	0.014400	0.456600	0.923000	0.000000
C40	C	0.456600	0.442200	0.077000	0.000000
C41	C	0.557800	0.014400	0.077000	0.000000
C42	C	0.985600	0.543400	0.077000	0.000000
C43	C	0.210067	0.891133	0.256333	0.000000
C44	C	0.108867	0.318933	0.256333	0.000000
C45	C	0.681067	0.789933	0.256333	0.000000
C46	C	0.123267	0.775533	0.410333	0.000000
C47	C	0.224467	0.347733	0.410333	0.000000
C48	C	0.652267	0.876733	0.410333	0.000000
C49	C	0.876733	0.224467	0.589667	0.000000
C50	C	0.775533	0.652267	0.589667	0.000000
C51	C	0.347733	0.123267	0.589667	0.000000
C52	C	0.789933	0.108867	0.743667	0.000000
C53	C	0.891133	0.681067	0.743667	0.000000
C54	C	0.318933	0.210067	0.743667	0.000000
C55	C	0.498500	0.516600	0.798000	0.000000
C56	C	0.483400	0.981900	0.798000	0.000000
C57	C	0.018100	0.501500	0.798000	0.000000
C58	C	0.501500	0.483400	0.202000	0.000000
C59	C	0.516600	0.018100	0.202000	0.000000
C60	C	0.981900	0.498500	0.202000	0.000000
C61	C	0.165167	0.849933	0.131333	0.000000
C62	C	0.150067	0.315233	0.131333	0.000000
C63	C	0.684767	0.834833	0.131333	0.000000
C64	C	0.168167	0.816733	0.535333	0.000000
C65	C	0.183267	0.351433	0.535333	0.000000
C66	C	0.648567	0.831833	0.535333	0.000000
C67	C	0.831833	0.183267	0.464667	0.000000
C68	C	0.816733	0.648567	0.464667	0.000000
C69	C	0.351433	0.168167	0.464667	0.000000
C70	C	0.834833	0.150067	0.868667	0.000000
C71	C	0.849933	0.684767	0.868667	0.000000
C72	C	0.315233	0.165167	0.868667	0.000000
H1	H	0.496000	0.529000	0.640000	0.000000
H2	H	0.471000	0.967000	0.640000	0.000000
H3	H	0.033000	0.504000	0.640000	0.000000
H4	H	0.504000	0.471000	0.360000	0.000000
H5	H	0.529000	0.033000	0.360000	0.000000
H6	H	0.967000	0.496000	0.360000	0.000000
H7	H	0.162667	0.862333	0.973333	0.000000
H8	H	0.137667	0.300333	0.973333	0.000000
H9	H	0.699667	0.837333	0.973333	0.000000
H10	H	0.170667	0.804333	0.693333	0.000000
H11	H	0.195667	0.366333	0.693333	0.000000
H12	H	0.633667	0.829333	0.693333	0.000000
H13	H	0.829333	0.195667	0.306667	0.000000
H14	H	0.804333	0.633667	0.306667	0.000000
H15	H	0.366333	0.170667	0.306667	0.000000
H16	H	0.837333	0.137667	0.026667	0.000000
H17	H	0.862333	0.699667	0.026667	0.000000
H18	H	0.300333	0.162667	0.026667	0.000000
Ni1	Ni	0.648500	0.619800	0.645200	0.000000
Ni2	Ni	0.380200	0.028700	0.645200	0.000000
Ni3	Ni	0.971300	0.351500	0.645200	0.000000
Ni4	Ni	0.351500	0.380200	0.354800	0.000000
Ni5	Ni	0.619800	0.971300	0.354800	0.000000
Ni6	Ni	0.028700	0.648500	0.354800	0.000000
Ni7	Ni	0.315167	0.953133	0.978533	0.000000
Ni8	Ni	0.046867	0.362033	0.978533	0.000000
Ni9	Ni	0.637967	0.684833	0.978533	0.000000
Ni10	Ni	0.018167	0.713533	0.688133	0.000000
Ni11	Ni	0.286467	0.304633	0.688133	0.000000
Ni12	Ni	0.695367	0.981833	0.688133	0.000000
Ni13	Ni	0.981833	0.286467	0.311867	0.000000
Ni14	Ni	0.713533	0.695367	0.311867	0.000000
Ni15	Ni	0.304633	0.018167	0.311867	0.000000
Ni16	Ni	0.684833	0.046867	0.021467	0.000000
Ni17	Ni	0.953133	0.637967	0.021467	0.000000
Ni18	Ni	0.362033	0.315167	0.021467	0.000000
O1	O	0.403800	0.434200	0.568000	0.000000
O2	O	0.565800	0.969600	0.568000	0.000000
O3	O	0.030400	0.596200	0.568000	0.000000
O4	O	0.596200	0.565800	0.432000	0.000000
O5	O	0.434200	0.030400	0.432000	0.000000
O6	O	0.969600	0.403800	0.432000	0.000000
O7	O	0.070467	0.767533	0.901333	0.000000
O8	O	0.232467	0.302933	0.901333	0.000000
O9	O	0.697067	0.929533	0.901333	0.000000
O10	O	0.262867	0.899133	0.765333	0.000000
O11	O	0.100867	0.363733	0.765333	0.000000
O12	O	0.636267	0.737133	0.765333	0.000000
O13	O	0.737133	0.100867	0.234667	0.000000
O14	O	0.899133	0.636267	0.234667	0.000000
O15	O	0.363733	0.262867	0.234667	0.000000
O16	O	0.929533	0.232467	0.098667	0.000000
O17	O	0.767533	0.697067	0.098667	0.000000
O18	O	0.302933	0.070467	0.098667	0.000000
O19	O	0.366400	0.369100	0.813000	0.000000
O20	O	0.630900	0.997300	0.813000	0.000000
O21	O	0.002700	0.633600	0.813000	0.000000
O22	O	0.633600	0.630900	0.187000	0.000000
O23	O	0.369100	0.002700	0.187000	0.000000
O24	O	0.997300	0.366400	0.187000	0.000000
O25	O	0.033067	0.702433	0.146333	0.000000
O26	O	0.297567	0.330633	0.146333	0.000000
O27	O	0.669367	0.966933	0.146333	0.000000
O28	O	0.300267	0.964233	0.520333	0.000000
O29	O	0.035767	0.336033	0.520333	0.000000
O30	O	0.663967	0.699733	0.520333	0.000000
O31	O	0.699733	0.035767	0.479667	0.000000
O32	O	0.964233	0.663967	0.479667	0.000000
O33	O	0.336033	0.300267	0.479667	0.000000
O34	O	0.966933	0.297567	0.853667	0.000000
O35	O	0.702433	0.669367	0.853667	0.000000
O36	O	0.330633	0.033067	0.853667	0.000000
O37	O	0.583800	0.612200	0.854000	0.000000
O38	O	0.387800	0.971600	0.854000	0.000000
O39	O	0.028400	0.416200	0.854000	0.000000
O40	O	0.416200	0.387800	0.146000	0.000000
O41	O	0.612200	0.028400	0.146000	0.000000
O42	O	0.971600	0.583800	0.146000	0.000000
O43	O	0.250467	0.945533	0.187333	0.000000
O44	O	0.054467	0.304933	0.187333	0.000000
O45	O	0.695067	0.749533	0.187333	0.000000
O46	O	0.082867	0.721133	0.479333	0.000000
O47	O	0.278867	0.361733	0.479333	0.000000
O48	O	0.638267	0.917133	0.479333	0.000000
O49	O	0.917133	0.278867	0.520667	0.000000
O50	O	0.721133	0.638267	0.520667	0.000000
O51	O	0.361733	0.082867	0.520667	0.000000
O52	O	0.749533	0.054467	0.812667	0.000000
O53	O	0.945533	0.695067	0.812667	0.000000
O54	O	0.304933	0.250467	0.812667	0.000000
