data_ZincTetrazolate_PM
_symmetry_space_group_name_H-M	'P1'
_cell_length_a	19.214800
_cell_length_b	13.343600
_cell_length_c	10.671300
_cell_angle_alpha	90.000000
_cell_angle_beta	95.038000
_cell_angle_gamma	90.000000
_symmetry_Int_Tables_number 1

loop_
_symmetry_equiv_pos_as_xyz
'x,y,z'

loop_
_atom_site_label
_atom_site_type_symbol
_atom_site_fract_x
_atom_site_fract_y
_atom_site_fract_z
Zn	Zn	0.774540	0.608560	0.576300
Zn	Zn	0.774540	0.391440	0.076300
Zn	Zn	0.025440	0.891730	0.603050
Zn	Zn	0.025440	0.108270	0.103050
Zn	Zn	0.523370	0.891090	0.565690
Zn	Zn	0.523370	0.108910	0.065690
Zn	Zn	0.275060	0.608820	0.597600
Zn	Zn	0.275060	0.391180	0.097600
N	N	0.453600	0.717900	0.467400
N	N	0.453600	0.282100	0.967400
N	N	0.402800	0.657700	0.471200
N	N	0.402800	0.342300	0.971200
N	N	0.449000	0.784400	0.554000
N	N	0.449000	0.215600	0.054000
N	N	0.365100	0.681300	0.575600
N	N	0.365100	0.318700	0.075600
N	N	0.710200	0.792600	0.474700
N	N	0.710200	0.207400	0.974700
N	N	0.662100	0.852400	0.473400
N	N	0.662100	0.147600	0.973400
N	N	0.700000	0.708700	0.547900
N	N	0.700000	0.291300	0.047900
N	N	0.612300	0.809500	0.548300
N	N	0.612300	0.190500	0.048300
N	N	0.970300	0.695600	0.517300
N	N	0.970300	0.304400	0.017300
N	N	0.916100	0.635900	0.512600
N	N	0.916100	0.364100	0.012600
N	N	0.866200	0.680700	0.566500
N	N	0.866200	0.319300	0.066500
N	N	0.953900	0.783900	0.576800
N	N	0.953900	0.216100	0.076800
N	N	0.216000	0.794600	0.508300
N	N	0.216000	0.205400	0.008300
N	N	0.118700	0.823900	0.593900
N	N	0.118700	0.176100	0.093900
N	N	0.163500	0.859000	0.512600
N	N	0.163500	0.141000	0.012600
N	N	0.207000	0.723000	0.586000
N	N	0.207000	0.277000	0.086000
N	N	0.767500	0.586600	0.947900
N	N	0.767500	0.413400	0.447900
N	N	0.766900	0.630600	0.837300
N	N	0.766900	0.369400	0.337300
N	N	0.772700	0.555200	0.749800
N	N	0.772700	0.444800	0.249800
N	N	0.773400	0.486700	0.932700
N	N	0.773400	0.513300	0.432700
N	N	0.021000	0.013100	0.961000
N	N	0.021000	0.986900	0.461000
N	N	0.271100	0.485600	0.952100
N	N	0.271100	0.514400	0.452100
N	N	0.277000	0.555900	0.770700
N	N	0.277000	0.444100	0.270700
N	N	0.546000	0.925800	0.934300
N	N	0.546000	0.074200	0.434300
N	N	0.549300	0.875800	0.828600
N	N	0.549300	0.124200	0.328600
N	N	0.533100	0.948100	0.740500
N	N	0.533100	0.051900	0.240500
N	N	0.523600	0.017200	0.920400
N	N	0.523600	0.982800	0.420400
C	C	0.396100	0.759600	0.618900
C	C	0.396100	0.240400	0.118900
C	C	0.371900	0.805800	0.727200
C	C	0.371900	0.194200	0.227200
H	H	0.399900	0.863800	0.749400
H	H	0.399900	0.136200	0.249400
H	H	0.375400	0.759200	0.795900
H	H	0.375400	0.240800	0.295900
H	H	0.324000	0.825700	0.709200
H	H	0.324000	0.174300	0.209200
C	C	0.641900	0.722600	0.593300
C	C	0.641900	0.277400	0.093300
C	C	0.605300	0.657600	0.672800
C	C	0.605300	0.342400	0.172800
H	H	0.562900	0.689600	0.693000
H	H	0.562900	0.310400	0.193000
H	H	0.634200	0.644200	0.748900
H	H	0.634200	0.355800	0.248900
H	H	0.594200	0.595800	0.629600
H	H	0.594200	0.404200	0.129600
C	C	0.111400	0.682400	0.736400
C	C	0.111400	0.317600	0.236400
H	H	0.138100	0.623300	0.759100
H	H	0.138100	0.376700	0.259100
H	H	0.065400	0.663400	0.702300
H	H	0.065400	0.336600	0.202300
H	H	0.108000	0.723200	0.809600
H	H	0.108000	0.276800	0.309600
C	C	0.147200	0.741300	0.638300
C	C	0.147200	0.258700	0.138300
C	C	0.774900	0.471200	0.811400
C	C	0.774900	0.528800	0.311400
C	C	0.889100	0.772600	0.607300
C	C	0.889100	0.227400	0.107300
C	C	0.853500	0.845700	0.673500
C	C	0.853500	0.154300	0.173500
H	H	0.807500	0.821800	0.686100
H	H	0.807500	0.178200	0.186100
H	H	0.850000	0.906700	0.625600
H	H	0.850000	0.093300	0.125600
H	H	0.878800	0.858100	0.753600
H	H	0.878800	0.141900	0.253600
C	C	0.505200	0.127500	0.737100
C	C	0.505200	0.872500	0.237100
H	H	0.504600	0.118200	0.647800
H	H	0.504600	0.881800	0.147800
H	H	0.541000	0.174800	0.764500
H	H	0.541000	0.825200	0.264500
H	H	0.460600	0.152400	0.757200
H	H	0.460600	0.847600	0.257200
C	C	0.519500	0.030900	0.801200
C	C	0.519500	0.969100	0.301200
C	C	0.250300	0.373700	0.765800
C	C	0.250300	0.626300	0.265800
H	H	0.248800	0.383500	0.676500
H	H	0.248800	0.616500	0.176500
H	H	0.206200	0.348200	0.787200
H	H	0.206200	0.651800	0.287200
H	H	0.286600	0.326600	0.791700
H	H	0.286600	0.673400	0.291700
C	C	0.784000	0.367100	0.761100
C	C	0.784000	0.632900	0.261100
H	H	0.783800	0.319600	0.828600
H	H	0.783800	0.680400	0.328600
H	H	0.827700	0.363000	0.724000
H	H	0.827700	0.637000	0.224000
H	H	0.746400	0.352400	0.698600
H	H	0.746400	0.647600	0.198600
N	N	0.019900	0.942700	0.772800
N	N	0.019900	0.057300	0.272800
C	C	0.264700	0.469200	0.829900
C	C	0.264700	0.530800	0.329900
N	N	0.014500	0.874000	0.859800
N	N	0.014500	0.126000	0.359800
C	C	0.022200	0.031300	0.836700
C	C	0.022200	0.968700	0.336700
N	N	0.286900	0.581300	0.969800
N	N	0.286900	0.418700	0.469800
N	N	0.015400	0.912600	0.972600
N	N	0.015400	0.087400	0.472600
N	N	0.295600	0.621300	0.862200
N	N	0.295600	0.378700	0.362200
C	C	0.032000	0.129600	0.775800
C	C	0.032000	0.870400	0.275800
H	H	0.031100	0.120600	0.686400
H	H	0.031100	0.879400	0.186400
H	H	0.076100	0.157700	0.807300
H	H	0.076100	0.842300	0.307300
H	H	0.995000	0.174200	0.794300
H	H	0.995000	0.825800	0.294300
